<?xml version="1.0" encoding="UTF-8"?>
>

<routes xmlns:xsi="http://www.w3.org/2001/XMLSchema-instance" xsi:noNamespaceSchemaLocation="http://sumo.dlr.de/xsd/routes_file.xsd">
    <!-- Route -->
    <!--route edges="E2 E5" color="yellow" id="route_0"/-->
   
    <!-- Taxi-Type -->
    <!--vType id="taxi" vClass="taxi" personCapacity="8">
        <param key="has.taxi.device" value="true"/>
    </vType-->
    <vType id="car" accel="1.0" decel="3.0" length="4" maxSpeed="55.55" personCapacity="8" />
    <!--route id="route1" edges="E2 E5"/>
    <route id="route2" edges="E4 E5"/-->
    <route id="route1" edges="E2 E5" />
    <route id="route2" edges="E4 E5"/>
    <flow id="carFlows1" color="0,1,0" type="car" begin="1" end="20" number="5000" route="route1" departLane="random"/>
    <!--flow id="carFlows1" color="0,0,1" type="car" begin="1" end="20" number="15000" route="route1" departLane="0"/>
    <flow id="carFlows2" color="0,1,0" type="car" begin="1" end="20" number="15000" route="route1" departLane="1"/>
    <flow id="carFlows3" color="yellow" type="car" begin="1" end="20" number="15000" route="route1" departLane="2"/-->
    <flow id="carFlows4" color="1,0,0" type="car" begin="2" end="5" number="500" route="route2"/>


    
</routes>



