<?xml version="1.0" encoding="UTF-8"?>

<!-- generated on 2023-12-05 15:54:57 by Eclipse SUMO netedit Version 1.18.0
<configuration xmlns:xsi="http://www.w3.org/2001/XMLSchema-instance" xsi:noNamespaceSchemaLocation="http://sumo.dlr.de/xsd/neteditConfiguration.xsd">

    <input>
        <sumo-net-file value="C:\Users\DELL\Documents\3 CS\RL\test2.net.xml"/>
    </input>

    <output>
        <output-file value="C:\Users\DELL\Documents\3 CS\RL\test2.net.xml"/>
    </output>

    <processing>
        <geometry.min-radius.fix.railways value="false"/>
        <geometry.max-grade.fix value="false"/>
        <offset.disable-normalization value="true"/>
        <lefthand value="0"/>
    </processing>

    <junctions>
        <no-turnarounds value="true"/>
        <junctions.corner-detail value="5"/>
        <junctions.limit-turn-speed value="5.50"/>
        <rectangular-lane-cut value="0"/>
    </junctions>

    <pedestrian>
        <walkingareas value="0"/>
    </pedestrian>

</configuration>
-->

<net version="1.16" junctionCornerDetail="5" limitTurnSpeed="5.50" xmlns:xsi="http://www.w3.org/2001/XMLSchema-instance" xsi:noNamespaceSchemaLocation="http://sumo.dlr.de/xsd/net_file.xsd">

    <location netOffset="0.00,0.00" convBoundary="-20.99,30.28,93.49,64.80" origBoundary="-10000000000.00,-10000000000.00,10000000000.00,10000000000.00" projParameter="!"/>

    <edge id=":J5_0" function="internal">
        <lane id=":J5_0_0" index="0" speed="9.10" length="7.65" shape="39.80,52.10 41.72,53.82 43.43,55.05 44.93,55.77 46.21,55.99"/>
    </edge>
    <edge id=":J5_1" function="internal">
        <lane id=":J5_1_0" index="0" speed="13.89" length="8.03" shape="38.22,56.04 46.21,55.99"/>
        <lane id=":J5_1_1" index="1" speed="13.89" length="8.03" shape="38.26,59.24 46.30,59.19"/>
        <lane id=":J5_1_2" index="2" speed="13.89" length="8.03" shape="38.30,62.44 46.38,62.38"/>
    </edge>

    <edge id="E2" from="J4" to="J5" priority="-1" length="60.00">
        <lane id="E2_0" index="0" speed="13.89" length="60.00" shape="-21.09,56.80 38.22,56.04"/>
        <lane id="E2_1" index="1" speed="13.89" length="60.00" shape="-21.05,60.00 38.26,59.24"/>
        <lane id="E2_2" index="2" speed="13.89" length="60.00" shape="-21.01,63.20 38.30,62.44"/>
    </edge>
    <edge id="E4" from="J7" to="J5" priority="-1">
        <lane id="E4_0" index="0" speed="13.89" length="32.92" shape="16.22,29.13 39.80,52.10"/>
    </edge>
    <edge id="E5" from="J5" to="J8" priority="-1" length="60.00">
        <lane id="E5_0" index="0" speed="13.89" length="60.00" shape="46.21,55.99 93.28,54.75"/>
        <lane id="E5_1" index="1" speed="13.89" length="60.00" shape="46.30,59.19 93.36,57.95"/>
        <lane id="E5_2" index="2" speed="13.89" length="60.00" shape="46.38,62.38 93.45,61.15"/>
    </edge>

    <tlLogic id="J5" type="static" programID="0" offset="0">
        <phase duration="42" state="GGGG"/>
        <phase duration="3"  state="yGGG"/>
        <phase duration="42" state="rGGG"/>
        <phase duration="3"  state="rGGG"/>
    </tlLogic>

    <junction id="J4" type="dead_end" x="-20.99" y="64.80" incLanes="" intLanes="" shape="-20.99,64.80 -21.11,55.20"/>
    <junction id="J5" type="traffic_light" x="49.62" y="63.90" incLanes="E4_0 E2_0 E2_1 E2_2" intLanes=":J5_0_0 :J5_1_0 :J5_1_1 :J5_1_2" shape="46.42,63.98 46.17,54.39 44.84,54.03 44.01,53.55 43.08,52.88 42.05,52.01 40.91,50.95 38.68,53.25 39.16,53.90 39.17,54.13 39.01,54.30 38.68,54.41 38.20,54.44 38.32,64.04">
        <request index="0" response="1110" foes="1110" cont="0"/>
        <request index="1" response="0000" foes="0001" cont="0"/>
        <request index="2" response="0000" foes="0001" cont="0"/>
        <request index="3" response="0000" foes="0001" cont="0"/>
    </junction>
    <junction id="J7" type="dead_end" x="15.10" y="30.28" incLanes="" intLanes="" shape="15.10,30.28 17.33,27.99"/>
    <junction id="J8" type="dead_end" x="93.49" y="62.75" incLanes="E5_0 E5_1 E5_2" intLanes="" shape="93.24,53.15 93.49,62.75"/>

    <connection from="E2" to="E5" fromLane="0" toLane="0" via=":J5_1_0" tl="J5" linkIndex="1" dir="s" state="O"/>
    <connection from="E2" to="E5" fromLane="1" toLane="1" via=":J5_1_1" tl="J5" linkIndex="2" dir="s" state="O"/>
    <connection from="E2" to="E5" fromLane="2" toLane="2" via=":J5_1_2" tl="J5" linkIndex="3" dir="s" state="O"/>
    <connection from="E4" to="E5" fromLane="0" toLane="0" via=":J5_0_0" tl="J5" linkIndex="0" dir="r" state="o"/>

    <connection from=":J5_0" to="E5" fromLane="0" toLane="0" dir="r" state="M"/>
    <connection from=":J5_1" to="E5" fromLane="0" toLane="0" dir="s" state="M"/>
    <connection from=":J5_1" to="E5" fromLane="1" toLane="1" dir="s" state="M"/>
    <connection from=":J5_1" to="E5" fromLane="2" toLane="2" dir="s" state="M"/>

</net>
